src/tests/data/grids/DGS/hvdc_vsc_v3_complete_static_dynamic.dgs
********************************************************************************
*
* DIgSILENT (R) DGS Export V1.8.4
* Copyright 1997-2026 DIgSILENT GmbH. All rights reserved.
*
* DIgSILENT (C) PowerFactory V25.0.6.0
*
* Date:     08/19/2026 13:24
* Project:  HVDC VSC validation exports (Study Case: Base)
*
********************************************************************************


$$General;FID(a:40);Descr(a:40);Val(a:255)
  1;Version;7.0


$$BlkDef;FID(a:40);OP(a:1);loc_name(a:80);fold_id(p);isMacro(i);level(i);sUpLimPar:SIZEROW(i);sUpLimPar:0(a);sUpLimInp:SIZEROW(i);sUpLimInp:0(a);sLowLimPar:SIZEROW(i);sLowLimPar:0(a);sLowLimInp:SIZEROW(i);sLowLimInp:0(a);sOutput:SIZEROW(i);sOutput:0(a);sInput:SIZEROW(i);sInput:0(a);sStates:SIZEROW(i);sStates:0(a);sParams:SIZEROW(i);sParams:0(a);sIntern:SIZEROW(i);sIntern:0(a);sAddEquat:SIZEROW(i);sAddEquat:0(a);sAddEquat:1(a);sAddEquat:2(a);sAddEquat:3(a);sAddEquat:4(a);sAddEquat:5(a);sAddEquat:6(a);sAddEquat:7(a);sAddEquat:8(a);sAddEquat:9(a);sAddEquat:10(a);sAddEquat:11(a);sAddEquat:12(a);sAddEquat:13(a);sAddEquat:14(a);sAddEquat:15(a);sAddEquat:16(a);sAddEquat:17(a);sAddEquat:18(a);sAddEquat:19(a);sAddEquat:20(a);sAddEquat:21(a);sAddEquat:22(a);sAddEquat:23(a);sAddEquat:24(a);sAddEquat:25(a);sAddEquat:26(a);sAddEquat:27(a);sAddEquat:28(a);sAddEquat:29(a);sAddEquat:30(a);sAddEquat:31(a);sAddEquat:32(a);sAddEquat:33(a);sAddEquat:34(a);sAddEquat:35(a);sAddEquat:36(a);sAddEquat:37(a);sAddEquat:38(a);sAddEquat:39(a);sAddEquat:40(a);sAddEquat:41(a);sAddEquat:42(a);sAddEquat:43(a);sAddEquat:44(a);sAddEquat:45(a);sAddEquat:46(a);sAddEquat:47(a);sAddEquat:48(a);sAddEquat:49(a);sAddEquat:50(a);sAddEquat:51(a);sAddEquat:52(a);sAddEquat:53(a);sAddEquat:54(a);sAddEquat:55(a);sAddEquat:56(a);sAddEquat:57(a);sAddEquat:58(a);sAddEquat:59(a);sAddEquat:60(a);sAddEquat:61(a);sAddEquat:62(a);sAddEquat:63(a);sAddEquat:64(a);sAddEquat:65(a);sAddEquat:66(a);sAddEquat:67(a);sAddEquat:68(a);sAddEquat:69(a);sAddEquat:70(a);sAddEquat:71(a);sAddEquat:72(a);sAddEquat:73(a);sAddEquat:74(a);sAddEquat:75(a);sAddEquat:76(a);sAddEquat:77(a);sAddEquat:78(a);sAddEquat:79(a);sAddEquat:80(a);sAddEquat:81(a);sAddEquat:82(a);sAddEquat:83(a);sAddEquat:84(a);sAddEquat:85(a);sAddEquat:86(a);sAddEquat:87(a);sAddEquat:88(a);sAddEquat:89(a);sAddEquat:90(a);sAddEquat:91(a);sAddEquat:92(a);sAddEquat:93(a);sAddEquat:94(a);sAddEquat:95(a);sAddEquat:96(a);sAddEquat:97(a);sAddEquat:98(a);sAddEquat:99(a);sAddEquat:100(a);sAddEquat:101(a);sAddEquat:102(a);sAddEquat:103(a);sAddEquat:104(a);sAddEquat:105(a);sAddEquat:106(a);sAddEquat:107(a);sAddEquat:108(a);sAddEquat:109(a);sAddEquat:110(a);sAddEquat:111(a);sAddEquat:112(a);sAddEquat:113(a);sAddEquat:114(a);sAddEquat:115(a);sAddEquat:116(a);sAddEquat:117(a);sAddEquat:118(a);sAddEquat:119(a);sAddEquat:120(a);sAddEquat:121(a);sAddEquat:122(a);sAddEquat:123(a);sAddEquat:124(a);sAddEquat:125(a);sAddEquat:126(a);sAddEquat:127(a);sAddEquat:128(a);sAddEquat:129(a);sAddEquat:130(a);sAddEquat:131(a);sAddEquat:132(a);sAddEquat:133(a);sAddEquat:134(a);sAddEquat:135(a);sAddEquat:136(a);sAddEquat:137(a);sAddEquat:138(a);sAddEquat:139(a);sAddEquat:140(a);sAddEquat:141(a);sAddEquat:142(a);sAddEquat:143(a);sAddEquat:144(a);sAddEquat:145(a);sAddEquat:146(a);sAddEquat:147(a);sAddEquat:148(a);sAddEquat:149(a);sAddEquat:150(a);sAddEquat:151(a);sAddEquat:152(a);sAddEquat:153(a);sAddEquat:154(a);sAddEquat:155(a);sAddEquat:156(a);sAddEquat:157(a);sAddEquat:158(a);sAddEquat:159(a);sAddEquat:160(a);sAddEquat:161(a);sAddEquat:162(a);sAddEquat:163(a);sAddEquat:164(a);sAddEquat:165(a);sAddEquat:166(a);sAddEquat:167(a);sAddEquat:168(a);sAddEquat:169(a);sAddEquat:170(a);sAddEquat:171(a);sAddEquat:172(a);sAddEquat:173(a);sAddEquat:174(a);sAddEquat:175(a);sAddEquat:176(a);sAddEquat:177(a);sAddEquat:178(a);sAddEquat:179(a);sAddEquat:180(a);sAddEquat:181(a);sAddEquat:182(a);sAddEquat:183(a);sAddEquat:184(a);sAddEquat:185(a);sAddEquat:186(a);sAddEquat:187(a);sAddEquat:188(a);sAddEquat:189(a);sAddEquat:190(a);sAddEquat:191(a);sAddEquat:192(a);sAddEquat:193(a);sAddEquat:194(a);sAddEquat:195(a);sAddEquat:196(a);sAddEquat:197(a);sAddEquat:198(a);sAddEquat:199(a);sAddEquat:200(a);sAddEquat:201(a);sAddEquat:202(a);sAddEquat:203(a);sAddEquat:204(a);sAddEquat:205(a);sAddEquat:206(a);sAddEquat:207(a);sAddEquat:208(a);sAddEquat:209(a);sAddEquat:210(a);sAddEquat:211(a);sAddEquat:212(a);sAddEquat:213(a);sAddEquat:214(a);sAddEquat:215(a);sAddEquat:216(a);sAddEquat:217(a);sAddEquat:218(a);sAddEquat:219(a);sAddEquat:220(a);sAddEquat:221(a);sAddEquat:222(a);sAddEquat:223(a);sAddEquat:224(a);sAddEquat:225(a);sAddEquat:226(a);sAddEquat:227(a);sAddEquat:228(a);sAddEquat:229(a);sAddEquat:230(a);sAddEquat:231(a);sAddEquat:232(a);sAddEquat:233(a);sAddEquat:234(a);sAddEquat:235(a);sAddEquat:236(a);sAddEquat:237(a);sAddEquat:238(a);sAddEquat:239(a);sAddEquat:240(a);sAddEquat:241(a);sAddEquat:242(a);sAddEquat:243(a);sAddEquat:244(a);sAddEquat:245(a);sAddEquat:246(a);sAddEquat:247(a);sAddEquat:248(a);sAddEquat:249(a);sAddEquat:250(a);sAddEquat:251(a);sAddEquat:252(a);sAddEquat:253(a);sAddEquat:254(a);sAddEquat:255(a);sAddEquat:256(a);sAddEquat:257(a);sAddEquat:258(a);sAddEquat:259(a);sAddEquat:260(a);sAddEquat:261(a);sAddEquat:262(a);sAddEquat:263(a);sAddEquat:264(a);sAddEquat:265(a);sAddEquat:266(a);sAddEquat:267(a);sAddEquat:268(a);sAddEquat:269(a);sAddEquat:270(a);sAddEquat:271(a);sAddEquat:272(a);sAddEquat:273(a);sAddEquat:274(a);sAddEquat:275(a);sAddEquat:276(a);sAddEquat:277(a);sAddEquat:278(a);sAddEquat:279(a);sAddEquat:280(a);sAddEquat:281(a);sAddEquat:282(a);sAddEquat:283(a);sAddEquat:284(a);sAddEquat:285(a);sAddEquat:286(a);sAddEquat:287(a);sAddEquat:288(a);sAddEquat:289(a);sAddEquat:290(a);sAddEquat:291(a);sAddEquat:292(a);sAddEquat:293(a);sAddEquat:294(a);sAddEquat:295(a);sAddEquat:296(a);sAddEquat:297(a);sAddEquat:298(a);sAddEquat:299(a);sAddEquat:300(a);sAddEquat:301(a);sAddEquat:302(a);sAddEquat:303(a);sAddEquat:304(a);sAddEquat:305(a);sAddEquat:306(a);sAddEquat:307(a);sAddEquat:308(a);sAddEquat:309(a);sAddEquat:310(a);sAddEquat:311(a);sAddEquat:312(a);sAddEquat:313(a);sAddEquat:314(a);sAddEquat:315(a);sAddEquat:316(a);sAddEquat:317(a);sAddEquat:318(a);sAddEquat:319(a);sAddEquat:320(a);sAddEquat:321(a);sAddEquat:322(a);sAddEquat:323(a);sAddEquat:324(a);sAddEquat:325(a);sAddEquat:326(a);sAddEquat:327(a);sAddEquat:328(a);sAddEquat:329(a);sAddEquat:330(a);sAddEquat:331(a);sAddEquat:332(a);sAddEquat:333(a);sAddEquat:334(a);sAddEquat:335(a);sAddEquat:336(a);sAddEquat:337(a);sAddEquat:338(a);sAddEquat:339(a);sAddEquat:340(a);sAddEquat:341(a);sAddEquat:342(a);sAddEquat:343(a);sAddEquat:344(a);sAddEquat:345(a);sAddEquat:346(a);sAddEquat:347(a);sAddEquat:348(a);sAddEquat:349(a);sAddEquat:350(a);sAddEquat:351(a);sAddEquat:352(a);sAddInter:SIZEROW(i);sAddInter:0(a);sAddParam:SIZEROW(i);sAddParam:0(a);cOutput(a);cInput(a);cStates(a);cParams(a);cIntern(a)
  2;C;Chopper Controller R (RMS);285;0;6;0;;0;;0;;0;;1;gate,R,trip;1;udcp,udcm,Idcp,Idcm,trig_ext,P_ext;1;xu,xR,xe;1;Topo,Un,udc_act,udc_max,Tudc,Pmin,Pmax,Mode_char,Tchp,Emax,Mode_bp,AutoInput;1;udc_in,udc,Rmax,Rmin,Rinc,Rx,P,E;93;"vardef(Topo)      =       ;'Circuit Topology: 0 = symmetric; 1 = asymmetric'";"vardef(Un)        = 'kV'  ;'Nominal DC voltage'";"vardef(udc_act)   = 'p.u.';'DC voltage threshold for chopper activation'";"vardef(udc_max)   = 'p.u.';'Maximum DC voltage'";"vardef(Tudc)      = 's'   ;'Voltage mesaurement time constant'";"vardef(Pmin)      = 'MW'  ;'Minimum power consumption at udc_act'";"vardef(Pmax)      = 'MW'  ;'Maximum power consumption at udc_max'";"vardef(Mode_char) =       ;'Characteristic: 0 = R linear, 1 = P linear with u'";"vardef(Tchp)      = 's'   ;'Effective time constant of control and PWM'";"vardef(Emax)      = 'MWs' ;'Maximum admissible energy absorption'";"vardef(Mode_bp)   =       ;'Bypass if Emax exceeded: 0=disabled, 1=enabled'";"vardef(AutoInput) =       ;'Automated input: 0 = no, 1 = yes (Topo, Un)'";;"vardef(udc)      = 'p.u.';'DC voltage'";"vardef(udcp)     = 'p.u.';'DC voltage (plus pole)'";"vardef(udcm)     = 'p.u.';'DC voltage (minus pole)'";"vardef(gate)     =       ;'Gate signal'";"vardef(R)        = 'Ohm' ;'Chopper resistance'";"vardef(trip)     =       ;'Overload trip signal'";"vardef(trig_ext) =       ;'External trigger signal: 0 = off, 1 = on (triggered)'";"vardef(P_ext)    = 'MW'  ;'Ordered power consumption if externally triggered'";;"vardef(Idcp) = 'kA' ;'Current (plus pole)'";"vardef(Idcm) = 'kA' ;'Current (minus pole)'";"vardef(P)    = 'MW' ;'Power consumption'";"vardef(E)    = 'MWs';'Absorbed energy'";"vardef(Rinc) = 'Ohm';'Initial chopper resistance'";"vardef(Rmax) = 'Ohm';'Maximum chopper resistance'";"vardef(Rmin) = 'Ohm';'Minimum chopper resistance'";;;limfix(Topo)      = [0,1]         ! 0 <= Topo <= 1;limfix(Un)        = (0,)          ! Un > 0;limfix(udc_act)   = (0,udc_max)   ! 0 < udc_act < udc_max;limfix(udc_max)   = (udc_act,)    ! udc_max > udc_act;limfix(Tudc)      = [0,)          ! Tudc >= 0;limfix(Pmin)      = (0,Pmax)      ! 0 < Pmin < Pmax;limfix(Pmax)      = (Pmin,)       ! Pmax > Pmin;limfix(Mode_char) = [0,1]         ! 0 <= Mode_char <= 1;limfix(Tchp)      = [0,)          ! Tchp >= 0;limfix(Emax)      = (0,)          ! Emax > 0;limfix(Mode_bp)   = [0,1]         ! 0 <= Mode_bp <= 1;limfix(AutoInput) = [0,1]         ! 0 <= AutoInput <= 1;;;inc0(udcp) = +1.0;inc0(udcm) = -1.0;inc0(P_ext) = Pmax;;inc(xu) = udc_in;inc(xR) = R;inc(xe) = 0;;inc(gate) = select(udc>udc_act,1,-1);inc(trig_ext) = 0;inc(trip) = 0;inc(Rinc) = R;inc(Rmax) = selfix(Topo, sqr(udc_act*Un)/Pmin, sqr(udc_act*Un)/(2*Pmin));inc(Rmin) = selfix(Topo, sqr(udc_max*Un)/Pmax, sqr(udc_max*Un)/(2*Pmax));;;udc_in = selfix(Topo,(udcp-udcm),(udcp-udcm)/2);xu. = selfix(Tudc>0, (udc_in-xu)/selfix(Tudc>0,Tudc,1.0), 0.0);udc = selfix(Tudc>0, xu, udc_in);;gate = 2*(picdro_const((udc-udc_act)+0.5,0.001,0.005)+trig_ext+selfix(Mode_bp,trip,0))-1   !picdrop output is 1 or 0;output(gate,'Chopper activated.');;Rx = select(trip.and.Mode_bp, Rmin/100,  !Set to Rmin/100 if Emax is exceeded and bypass mode enabled  ;&    select(trig_ext, sqr(udc*Un)/max(abs(P_ext),0.000001), !Chopper externally triggered;!           !Chopper triggered because udc > udc_act;&           select(2*picdro_const((udc-udc_act)+0.5,0.000,0.010)-1, ;&                  select(Mode_char, ;!                         !Change effective chopper resistance with square root function depending on dc over-voltage;!                         !in order to achieve a linear dependency of power consumed by chopper with dc over-voltage:;&                         max(Rmin,min(max(Rmax,Rinc),(Rmax + sqrt(max(0.0,min(udc,udc_max) - udc_act))*(Rmin - Rmax)/sqrt(udc_max - udc_act)))),;!                         !Change effective chopper resistance linear with dc over-voltage:;&                         max(Rmin,min(max(Rmax,Rinc),(Rmax + (min(udc,udc_max) - udc_act)*(Rmin - Rmax)/(udc_max - udc_act))))),;&           Rinc)));;xR. = selfix(Tchp>0, (Rx-xR)/selfix(Tchp>0,Tchp,1.0), 0.0);R = selfix(Tchp>0, xR, Rx);;P = selfix(Topo, udcp*Un*Idcp + udcm*Un*Idcm, udcp*Un/2*Idcp + udcm*Un/2*Idcm) != abs(udcp)*Un/2*abs(Idcp) + abs(udcm)*Un/2*abs(Idcm) ! Equation with abs() only valid if there are no inductances;xe. = abs(P) ! Change of energy absorbed in chopper. Chopper transforms current into heat independently from current flow direction.;!xe. = select(trip.and.Mode_bp, 0.0, abs(P)) ! Change of energy absorbed in chopper as long as not bypassed. Chopper transforms current into heat independently from current flow direction.;E = select(trip.and.Mode_bp, max(Emax,lastvalue(E)), xe);;trip = picdro_const(flipflop(E-Emax+0.5,0), 0.001, 0.001);output({E>Emax}.and.{.not.Mode_bp},'WARNING: Maximum admissible energy absorption exceeded!');output({E>Emax}.and.Mode_bp,'WARNING: Maximum admissible energy absorption exceeded! DC chopper will be bypassed.');output({2*(trip-0.5)}.and.Mode_bp,'Bypass activated.');;;;;;;;;;;;;;;;;;;;;;;;;;;;;;;;;;;;;;;;;;;;;;;;;;;;;;;;;;;;;;;;;;;;;;;;;;;;;;;;;;;;;;;;;;;;;;;;;;;;;;;;;;;;;;;;;;;;;;;;;;;;;;;;;;;;;;;;;;;;;;;;;;;;;;;;;;;;;;;;;;;;;;;;;;;;;;;;;;;;;;;;;;;;;;;;;;;;;;;;;;;;;;;;;;;;;;;;;;;;;;;;;;;;;;;;;;;;;;;;;;;;;;;;;;;;;;;;;;;;;;0;;0;;gate,R,trip;udcp,udcm,Idcp,Idcm,trig_ext,P_ext;xu,xR,xe;Topo,Un,udc_act,udc_max,Tudc,Pmin,Pmax,Mode_char,Tchp,Emax,Mode_bp,AutoInput;udc_in,udc,Rmax,Rmin,Rinc,Rx,P,E
  3;C;Frame Chopper R symmetric;285;0;6;0;;0;;0;;0;;1;trip;1;trig_ext,P_ext;0;;0;;1;R,gate,idcm,idcp,udcm,udcp;0;;;;;;;;;;;;;;;;;;;;;;;;;;;;;;;;;;;;;;;;;;;;;;;;;;;;;;;;;;;;;;;;;;;;;;;;;;;;;;;;;;;;;;;;;;;;;;;;;;;;;;;;;;;;;;;;;;;;;;;;;;;;;;;;;;;;;;;;;;;;;;;;;;;;;;;;;;;;;;;;;;;;;;;;;;;;;;;;;;;;;;;;;;;;;;;;;;;;;;;;;;;;;;;;;;;;;;;;;;;;;;;;;;;;;;;;;;;;;;;;;;;;;;;;;;;;;;;;;;;;;;;;;;;;;;;;;;;;;;;;;;;;;;;;;;;;;;;;;;;;;;;;;;;;;;;;;;;;;;;;;;;;;;;;;;;;;;;;;;;;;;;;;;;;;;;;;;0;;0;;trip;trig_ext,P_ext;;;R,gate,idcm,idcp,udcm,udcp
  4;C;FRT Control (Pos Seq Balanced) BlkDef;286;0;6;0;;0;;0;;0;;1;i1P_frt_ref,fault_detected,UVRT,OVRT,FRT_active,i1Q_frt_ref;1;i1P_ref,u1_loc,u1_poc,i1Q_ref;1;xu10,xi1Q_ref_slow,xi1P_ref_slow;1;poc,u_db_up,u_db_low,db_abs,u1fix,Tpost,diroot,K1,Tupre,DynCont,iQ_ref_frz,Tipre,u1min,iQ_red,iP_red,KiPred,iP_ref_frz;1;UV,OV,fault_UV,fault_OV,frt_UV,frt_OV,Delta_u1,i1Q_ref_slow,i1Q_ref_freeze,u1min_iQ,i1P_ref_slow,i1P_ref_freeze,u1min_iP,Delta_i1Q,u1,u10;88;Delta_u1=selfix(diroot>2.5,u1-u1fix,selfix(diroot>1.5,u1-1.0,selfix(diroot>0.5,selfix(db_abs>1.5,select(u1<(u1fix+u_db_low),u1-(u1fix+u_db_low),select(u1>(u1fix+u_db_up),u1-(u1fix+u_db_up),0)),selfix(db_abs,select(u1<(1.0+u_db_low),u1-(1.0+u_db_low),select(u1>(1.0+u_db_up),u1-(1.0+u_db_up),0)),select(u1<(u10+u_db_low),u1-(u10+u_db_low),select(u1>(u10+u_db_up),u1-(u10+u_db_up),0)))),u1-u10)));Delta_i1Q=-Delta_u1*K1;UV=selfix(db_abs>1.5,((u1fix+u_db_low)-u1)+0.5,selfix(db_abs,((1.0+u_db_low)-u1)+0.5,((u10+u_db_low)-u1)+0.5));OV=selfix(db_abs>1.5,(u1-(u1fix+u_db_up))+0.5,selfix(db_abs,(u1-(1.0+u_db_up))+0.5,(u1-(u10+u_db_up))+0.5));inc(fault_UV)=0;inc(fault_OV)=0;fault_UV=flipflop(selfix(db_abs>1.5,u1<(u1fix+u_db_low),selfix(db_abs,u1<(1.0+u_db_low),u1<(u10+u_db_low))),selfix(db_abs>1.5,u1>(u1fix+u_db_low+0.001),selfix(db_abs,u1>(1.0+u_db_low+0.001),u1>(u10+u_db_low+0.001))));fault_OV=flipflop(selfix(db_abs>1.5,u1>(u1fix+u_db_up),selfix(db_abs,u1>(1.0+u_db_up),u1>(u10+u_db_up))),selfix(db_abs>1.5,u1<(u1fix+u_db_up-0.001),selfix(db_abs,u1<(1.0+u_db_up-0.001),u1<(u10+u_db_up-0.001))));fault_detected=select_const(fault_UV.or.fault_OV,1,0);UVRT=fault_UV;OVRT=fault_OV;inc(frt_UV)=0;inc(frt_OV)=0;frt_UV=picdro_const(UV,0.001,selfix_const(Tpost>0.005,Tpost,0.005));frt_OV=picdro_const(OV,0.001,selfix_const(Tpost>0.005,Tpost,0.005));FRT_active=select_const(frt_UV.or.frt_OV,1,0);u1min_iQ=flipflop(max(0.0,u1)<(u1min-0.000001),max(0.0,u1)>(u1min+0.000001));xi1Q_ref_slow.=selfix(iQ_ref_frz,select(FRT_active,0.0,selfix(Tipre>0,(i1Q_ref-xi1Q_ref_slow)/Tipre,0.0)),0.0);i1Q_ref_slow=xi1Q_ref_slow;i1Q_ref_freeze=selfix(iQ_ref_frz,select(FRT_active,lastvalue(i1Q_ref_freeze),selfix(Tipre>0,i1Q_ref_slow,i1Q_ref)),i1Q_ref);i1Q_frt_ref=select(FRT_active,select(u1min_iQ,0.0,selfix(iQ_red,0.0,selfix(iQ_ref_frz,i1Q_ref_freeze+Delta_i1Q,i1Q_ref+Delta_i1Q))),selfix(DynCont,i1Q_ref+Delta_i1Q,i1Q_ref));xu10.=selfix(Tupre>0,select(fault_detected,0.0,(u1-xu10)/Tupre),0.0);u10=xu10;u1=selfix(poc>0,u1_poc,u1_loc);u1min_iP=flipflop(max(0.0,u1)<(u1min-0.000001),max(0.0,u1)>(u1min+0.000001));xi1P_ref_slow.=selfix(iP_ref_frz,select(UVRT,0.0,selfix(Tipre>0,(i1P_ref-xi1P_ref_slow)/Tipre,0.0)),0.0);i1P_ref_slow=xi1P_ref_slow;i1P_ref_freeze=selfix(iP_ref_frz,select(UVRT,lastvalue(i1P_ref_freeze),selfix(Tipre>0,i1P_ref_slow,i1P_ref)),i1P_ref);i1P_frt_ref=select(UVRT,select(u1min_iP,0.0,selfix(iP_red>1.5,selfix(iP_ref_frz,i1P_ref_freeze,i1P_ref)*(1.0-max(0.0,min(1.0,KiPred*selfix(db_abs,(1.0+u_db_low-u1)/(1.0+u_db_low),(u10+u_db_low-u1)/(u10+u_db_low))))),selfix(iP_red,0.0,i1P_ref))),i1P_ref);"vardef(poc)=;'Voltage monitored: 0 = at local terminal, 1 = at PoC'";"vardef(u_db_up)='p.u.';'Fault detection upper voltage deadband'";"vardef(u_db_low)='p.u.';'Fault detection lower voltage deadband'";"vardef(db_abs)=;'Deadband around: 0 = U pre-fault, 1 = U nominal, 2 = U individually fixed'";"vardef(u1fix)='p.u.';'Individually fixed pos.seq. voltage deadb. root'";"vardef(Tpost)='s';'Time for keeping FRT mode active after fault'";"vardef(Tupre)='s';'Time constant for pre-fault voltage'";"vardef(DynCont)=;'Continuous dynamic voltage support:  0=no, 1=yes'";"vardef(iQ_ref_frz)=;'Freeze iQ reference during FRT: 0 = no, 1 = yes'";"vardef(Tipre)='s';'Time constant for pre-fault current'";"vardef(diroot)=;'Add. current around: 0 = U pre-fault, 1 = U deadband, 2 = U nominal, 3 = U individually fixed'";"vardef(K1)=;'Gain for additional current in positive sequence'";"vardef(iQ_red)=;'Reduce reactive current to zero: 0 = no, 1 = yes'";"vardef(iP_red)=;'Reduce active current: 0 = no, 1 = zero, 2 = linear'";"vardef(KiPred)=;'Factor for linear active current reduction'";"vardef(iP_ref_frz)=;'Freeze iP reference during linear reduction: 0=no, 1=yes'";"vardef(u1min)='p.u.';'Minimum voltage for any current injection'";"vardef(u1_loc)='p.u.';'Positive sequence voltage magnitude at local terminal'";"vardef(u1_poc)='p.u.';'Positive sequence voltage magnitude at point of connection (PoC)'";"vardef(i1P_ref)='p.u.';'Positive sequence active current reference (input)'";"vardef(i1Q_ref)='p.u.';'Positive sequence reactive current reference without additional fault current'";"vardef(fault_detected)=;'Fault detected'";"vardef(UVRT)=;'Under-voltage-ride-through'";"vardef(OVRT)=;'Over-voltage-ride-through'";"vardef(FRT_active)=;'Fault-ride-through mode active'";"vardef(i1P_frt_ref)='p.u.';'Positive sequence active current reference (output)'";"vardef(i1Q_frt_ref)='p.u.';'Positive sequence reactive current reference including additional fault current'";"vardef(u1)='p.u.';'Positive sequence voltage magnitude'";"vardef(u10)='p.u.';'Pre-fault voltage magnitude, positive sequence'";"vardef(Delta_u1)='p.u.';'Voltage deviation, positive sequence'";"vardef(Delta_i1Q)='p.u.';'Additional reactive current, positive sequence'";"vardef(fault_UV)=;'Under-voltage detected'";"vardef(fault_OV)=;'Over-voltage detected'";limfix(poc)=[0,1];limfix(u_db_up)=[0,);limfix(u_db_low)=(,0];limfix(db_abs)=[0,2];limfix(Tpost)=[0.005,);limfix(Tupre)=(0,);limfix(Tipre)=(0,);limfix(DynCont)=[0,1];limfix(iQ_ref_frz)=[0,1];limfix(diroot)=[0,3];limfix(K1)=[0,);limfix(iQ_red)=[0,1];limfix(iP_red)=[0,2];limfix(KiPred)=[0,);limfix(iP_ref_frz)=[0,1];limfix(u1min)=[0,1);inc(xu10)=u1;inc(xi1P_ref_slow)=i1P_ref;inc(xi1Q_ref_slow)=i1Q_ref;inc(fault_detected)=0;inc(UVRT)=0;inc(OVRT)=0;inc(FRT_active)=0;inc(i1P_ref)=i1P_frt_ref;inc(i1Q_ref)=selfix(DynCont,i1Q_frt_ref-Delta_i1Q,i1Q_frt_ref);inc(u1)=selfix(poc,u1_poc,u1_loc);;;;;;;;;;;;;;;;;;;;;;;;;;;;;;;;;;;;;;;;;;;;;;;;;;;;;;;;;;;;;;;;;;;;;;;;;;;;;;;;;;;;;;;;;;;;;;;;;;;;;;;;;;;;;;;;;;;;;;;;;;;;;;;;;;;;;;;;;;;;;;;;;;;;;;;;;;;;;;;;;;;;;;;;;;;;;;;;;;;;;;;;;;;;;;;;;;;;;;;;;;;;;;;;;;;;;;;;;;;;;;;;;;;;;;;;;;;;;;;;;;;;;;;;;;;;;;;;;;;;;;;;;;0;;0;;i1P_frt_ref,fault_detected,UVRT,OVRT,FRT_active,i1Q_frt_ref;i1P_ref,u1_loc,u1_poc,i1Q_ref;xu10,xi1Q_ref_slow,xi1P_ref_slow;poc,u_db_up,u_db_low,db_abs,u1fix,Tpost,diroot,K1,Tupre,DynCont,iQ_ref_frz,Tipre,u1min,iQ_red,iP_red,KiPred,iP_ref_frz;UV,OV,fault_UV,fault_OV,frt_UV,frt_OV,Delta_u1,i1Q_ref_slow,i1Q_ref_freeze,u1min_iQ,i1P_ref_slow,i1P_ref_freeze,u1min_iP,Delta_i1Q,u1,u10
  5;C;Frame HVDC MMC Control (RMS Balanced);286;0;6;0;;0;;0;;0;;1;"trip,DC_switch_open;trip_dc;STATCOM_on,block";1;"mode_P_cmd,P_ref,udc_ref,EPC1;EPC2;EPC3;EPC4;EPC5;EPC6,yin_pod,mode_Q_cmd,uac_ref,Q_ref,pf_ref;pf_dir,phi0,mode_uac_droop_cmd,mode_f_droop_cmd,mode_isl_cmd";0;;0;;1;"DC_switch1_closed,DC_switch2_closed,EPC,FRT_active,Fnom_PoC1,Fnom_PoC2,P_min_epc;P_max_epc,Pac_loc,Pac_poc,Pmi,Pmr,Q_loc,Q_poc,UVRT,Ucap,block_remote,cosphi1;sinphi1,dP_epc,dP_fsm,dP_pod,dP_si,dPmarge_down,dPmarge_up,dQ_pod,f_Hz_in,f_fast;fn,f_fast_remote;fn_remote,f_slow,f_slow_remote,fn_Hz_in,fref,i1P_frt_ref,i1P_in_limit,i1P_ref,i1Q_frt_ref,i1Q_in_limit,i1Q_ref,i1d;i1q,i1d_ref,i1q_ref,i1r_loc;i1i_loc,i1r_poc2;i1i_poc2,i1r_poc;i1i_poc,i_loc,idc,idc;Pdc,mdc,phif,soft,trip_remote,u1,u1_ref,u1d;u1q,u1r_loc;u1i_loc,u1r_poc2;u1i_poc2,u1r_poc;u1i_poc,uac_poc,uconv_1d,uconv_1q,uconv_i,uconv_i_isl,uconv_i_nonisl,uconv_r,uconv_r_isl,uconv_r_nonisl,udc_n,udc_p,udc_slow;udc_fast,usp_loc_inst,uspr_loc_inst;uspi_loc_inst";0;;;;;;;;;;;;;;;;;;;;;;;;;;;;;;;;;;;;;;;;;;;;;;;;;;;;;;;;;;;;;;;;;;;;;;;;;;;;;;;;;;;;;;;;;;;;;;;;;;;;;;;;;;;;;;;;;;;;;;;;;;;;;;;;;;;;;;;;;;;;;;;;;;;;;;;;;;;;;;;;;;;;;;;;;;;;;;;;;;;;;;;;;;;;;;;;;;;;;;;;;;;;;;;;;;;;;;;;;;;;;;;;;;;;;;;;;;;;;;;;;;;;;;;;;;;;;;;;;;;;;;;;;;;;;;;;;;;;;;;;;;;;;;;;;;;;;;;;;;;;;;;;;;;;;;;;;;;;;;;;;;;;;;;;;;;;;;;;;;;;;;;;;;;;;;;;;;0;;0;;"trip,DC_switch_open;trip_dc;STATCOM_on,block";"mode_P_cmd,P_ref,udc_ref,EPC1;EPC2;EPC3;EPC4;EPC5;EPC6,yin_pod,mode_Q_cmd,uac_ref,Q_ref,pf_ref;pf_dir,phi0,mode_uac_droop_cmd,mode_f_droop_cmd,mode_isl_cmd";;;"DC_switch1_closed,DC_switch2_closed,EPC,FRT_active,Fnom_PoC1,Fnom_PoC2,P_min_epc;P_max_epc,Pac_loc,Pac_poc,Pmi,Pmr,Q_loc,Q_poc,UVRT,Ucap,block_remote,cosphi1;sinphi1,dP_epc,dP_fsm,dP_pod,dP_si,dPmarge_down,dPmarge_up,dQ_pod,f_Hz_in,f_fast;fn,f_fast_remote;fn_remote,f_slow,f_slow_remote,fn_Hz_in,fref,i1P_frt_ref,i1P_in_limit,i1P_ref,i1Q_frt_ref,i1Q_in_limit,i1Q_ref,i1d;i1q,i1d_ref,i1q_ref,i1r_loc;i1i_loc,i1r_poc2;i1i_poc2,i1r_poc;i1i_poc,i_loc,idc,idc;Pdc,mdc,phif,soft,trip_remote,u1,u1_ref,u1d;u1q,u1r_loc;u1i_loc,u1r_poc2;u1i_poc2,u1r_poc;u1i_poc,uac_poc,uconv_1d,uconv_1q,uconv_i,uconv_i_isl,uconv_i_nonisl,uconv_r,uconv_r_isl,uconv_r_nonisl,udc_n,udc_p,udc_slow;udc_fast,usp_loc_inst,uspr_loc_inst;uspi_loc_inst"
  6;C;Limiter Current (Pos Seq) BlkDef;286;0;6;1;i_max,iP_max,iQ_max,diP_max,diP_max_frt,diP_max_soft,diQ_max_soft;0;;0;;0;;1;i1d_ref,i1q_ref,i1P_in_limit,i1Q_in_limit;1;i1P_ref,i1Q_ref,FRT_active,block,soft,soft_manually;0;;1;PrioQ,PrioQ_FRT;1;blocked,i1d_prioP,i1d_prioQ,i1q_prioP,i1q_prioQ,i1_ref_in,i1_ref_ltd,i1d_prioRatio,i1q_prioRatio,i1_ref_out,i_ref_out,FRT_post,soft_flagP,soft_flagQ;62;FRT_post=picdro_const(flipflop(FRT_active.and.{.not.lastvalue(FRT_active)},.not.FRT_active)-0.499,0.0,100/max(0.000001,diP_max_frt));soft_flagP=picdro_const(flipflop({soft.or.soft_manually}.and.{.not.lastvalue(soft.or.soft_manually)},.not.{soft.or.soft_manually})-0.499,0.0,100/max(0.000001,diP_max_soft));soft_flagQ=picdro_const(flipflop({soft.or.soft_manually}.and.{.not.lastvalue(soft.or.soft_manually)},.not.{soft.or.soft_manually})-0.499,0.0,100/max(0.000001,diQ_max_soft));i1_ref_in=sqrt(sqr(i1P_ref)+sqr(i1Q_ref));i1_ref_ltd=min(i1_ref_in,i_max);i1d_prioP=max(-iP_max,min(iP_max,i1P_ref));i1q_prioP=max(-sqrt(max(0.0,sqr(i_max)-sqr(i1d_prioP))),min(sqrt(max(0.0,sqr(i_max)-sqr(i1d_prioP))),i1q_prioQ));i1d_prioQ=max(-sqrt(max(0.0,sqr(i_max)-sqr(i1q_prioQ))),min(sqrt(max(0.0,sqr(i_max)-sqr(i1q_prioQ))),i1d_prioP));i1q_prioQ=max(-iQ_max,min(iQ_max,-i1Q_ref));i1d_prioRatio=i1P_ref*max(0.00000001,i1_ref_ltd)/max(0.00000001,i1_ref_in);i1q_prioRatio=-i1Q_ref*max(0.00000001,i1_ref_ltd)/max(0.00000001,i1_ref_in);i1d_ref=select(i1P_ref>0.000001,select(blocked,0.0,select(FRT_active,gradlim_const(select(i1P_ref>0.000001,selfix(PrioQ_FRT>1.5,i1d_prioRatio,selfix(PrioQ_FRT,i1d_prioQ,i1d_prioP)),0.0),-99999,diP_max_frt/100),select(FRT_post,gradlim_const(select(i1P_ref>0.000001,selfix(PrioQ>1.5,i1d_prioRatio,selfix(PrioQ,i1d_prioQ,i1d_prioP)),0.0),-99999,diP_max_frt/100),select(soft_flagP,gradlim_const(select(i1P_ref>0.000001,selfix(PrioQ>1.5,i1d_prioRatio,selfix(PrioQ,i1d_prioQ,i1d_prioP)),0.0),-99999,diP_max_soft/100),gradlim_const(select(i1P_ref>0.000001,selfix(PrioQ>1.5,i1d_prioRatio,selfix(PrioQ,i1d_prioQ,i1d_prioP)),0.0),-99999,diP_max/100))))),select(i1P_ref<-0.000001,select(blocked,0.0,select(FRT_active,gradlim_const(select(i1P_ref<-0.000001,selfix(PrioQ_FRT>1.5,i1d_prioRatio,selfix(PrioQ_FRT,i1d_prioQ,i1d_prioP)),0.0),-diP_max_frt/100,99999),select(FRT_post,gradlim_const(select(i1P_ref<-0.000001,selfix(PrioQ>1.5,i1d_prioRatio,selfix(PrioQ,i1d_prioQ,i1d_prioP)),0.0),-diP_max_frt/100,99999),select(soft_flagP,gradlim_const(select(i1P_ref<-0.000001,selfix(PrioQ>1.5,i1d_prioRatio,selfix(PrioQ,i1d_prioQ,i1d_prioP)),0.0),-diP_max_soft/100,99999),gradlim_const(select(i1P_ref<-0.000001,selfix(PrioQ>1.5,i1d_prioRatio,selfix(PrioQ,i1d_prioQ,i1d_prioP)),0.0),-diP_max/100,99999))))),select(blocked,0.0,select(FRT_active,selfix(PrioQ_FRT>1.5,i1d_prioRatio,selfix(PrioQ_FRT,i1d_prioQ,i1d_prioP)),selfix(PrioQ>1.5,i1d_prioRatio,selfix(PrioQ,i1d_prioQ,i1d_prioP))))));i1q_ref=select(blocked,0.0,select(FRT_active,selfix(PrioQ_FRT>1.5,i1q_prioRatio,selfix(PrioQ_FRT,i1q_prioQ,i1q_prioP)),select(soft_flagQ,select(i1Q_ref<-0.000001,gradlim_const(select(i1Q_ref<-0.000001,selfix(PrioQ>1.5,i1q_prioRatio,selfix(PrioQ,i1q_prioQ,i1q_prioP)),0.0),-99999,diQ_max_soft/100),select(i1Q_ref>0.000001,gradlim_const(select(i1Q_ref>0.000001,selfix(PrioQ>1.5,i1q_prioRatio,selfix(PrioQ,i1q_prioQ,i1q_prioP)),0.0),-diQ_max_soft/100,99999),selfix(PrioQ>1.5,i1q_prioRatio,selfix(PrioQ,i1q_prioQ,i1q_prioP)))),selfix(PrioQ>1.5,i1q_prioRatio,selfix(PrioQ,i1q_prioQ,i1q_prioP)))));i1_ref_out=sqrt(max(0.0,sqr(i1d_ref)+sqr(i1q_ref)));i_ref_out=i1_ref_out;output(i_ref_out>i_max+0.00001,'Current reference output exceeds maximum limit: i_ref_out=i_ref_out > i_max=i_max');blocked=picdro_const(block-0.4999,0.000,0.001);i1P_in_limit=picdro_const(abs(i1P_ref)-abs(i1d_ref)+0.499,0.005,0.001);i1Q_in_limit=picdro_const(abs(i1Q_ref)-abs(i1q_ref)+0.499,0.005,0.001);"vardef(PrioQ)=;'Priority during normal operation: 0=iP, 1=iQ, 2=ratio iP/iQ'";"vardef(PrioQ_FRT)=;'Priority during FRT: 0 = iP, 1 = iQ, 2=ratio iP/iQ'";"vardef(i_max)='p.u.';'Maximum current'";"vardef(iP_max)='p.u.';'Maximum active current'";"vardef(iQ_max)='p.u.';'Maximum reactive current'";"vardef(diP_max)='%/s';'Max. positive gradient of active current'";"vardef(diP_max_frt)='%/s';'Max. active current gradient at/post FRT'";"vardef(diP_max_soft)='%/s';'Max. active current gradient at soft restart'";"vardef(diQ_max_soft)='%/s';'Max. reactive current gradient at soft restart'";"vardef(FRT_active)=;'Fault-ride-through mode active'";"vardef(block)=;'Blocking signal'";"vardef(soft)=;'Automatic soft start trigger signal'";"vardef(soft_manually)=;'Manually soft start trigger signal'";"vardef(i1P_ref)='p.u.';'Active current reference, positive sequence'";"vardef(i1Q_ref)='p.u.';'Reactive current reference, positive sequence'";"vardef(i1_ref_in)='p.u.';'Current reference, magnitude, positive sequence'";"vardef(i1d_ref)='p.u.';'Current reference, positive sequence, d-axis'";"vardef(i1q_ref)='p.u.';'Current reference, positive sequence, q-axis'";"vardef(i1_ref_out)='p.u.';'Current reference, magnitude, positive sequence'";"vardef(i_ref_out)='p.u.';'Current reference, magnitude'";"vardef(i1P_in_limit)=;'Active current reference in positive sequence exceeds limit'";"vardef(i1Q_in_limit)=;'Reactive current reference in positive sequence exceeds limit'";"vardef(FRT_post)=;'Flag for active and post FRT'";"vardef(soft_flagP)=;'Flag for soft start of active power'";"vardef(soft_flagQ)=;'Flag for soft start of reactive power'";limfix(PrioQ)=[0,2];limfix(PrioQ_FRT)=[0,2];limfix(i_max)=(0,);limfix(iP_max)=(0,i_max];limfix(iQ_max)=[0,i_max];limfix(diP_max)=(0,);limfix(diP_max_frt)=(0,);limfix(diP_max_soft)=(0,);limfix(diQ_max_soft)=(0,);inc(FRT_active)=0;inc0(block)=0;inc0(soft)=0;inc(soft_manually)=0;inc(blocked)=block;inc(i1P_ref)=selfix(block,0.0,i1d_ref);inc(i1Q_ref)=selfix(block,0.0,-i1q_ref);inc(i1P_in_limit)=0;inc(i1Q_in_limit)=0;;;;;;;;;;;;;;;;;;;;;;;;;;;;;;;;;;;;;;;;;;;;;;;;;;;;;;;;;;;;;;;;;;;;;;;;;;;;;;;;;;;;;;;;;;;;;;;;;;;;;;;;;;;;;;;;;;;;;;;;;;;;;;;;;;;;;;;;;;;;;;;;;;;;;;;;;;;;;;;;;;;;;;;;;;;;;;;;;;;;;;;;;;;;;;;;;;;;;;;;;;;;;;;;;;;;;;;;;;;;;;;;;;;;;;;;;;;;;;;;;;;;;;;;;;;;;;;;;;;;;;;;;;;;;;;;;;;;;;;;;;;;;;;;;;;;0;;0;;i1d_ref,i1q_ref,i1P_in_limit,i1Q_in_limit;i1P_ref,i1Q_ref,FRT_active,block,soft,soft_manually;;PrioQ,PrioQ_FRT;blocked,i1d_prioP,i1d_prioQ,i1q_prioP,i1q_prioQ,i1_ref_in,i1_ref_ltd,i1d_prioRatio,i1q_prioRatio,i1_ref_out,i_ref_out,FRT_post,soft_flagP,soft_flagQ
  7;C;Output Limiter Transform (Pos Seq)BlkDef;286;0;6;0;;0;;0;;0;;1;uconv_r,uconv_i;1;uconv_1d,uconv_1q,cosphi1,sinphi1;0;;1;uconv_max;1;theta1,uconv_1,uconv_1_ltd,uconv_1d_ltd,uconv_1q_ltd;25;uconv_1_ltd=max(0,min(uconv_max,uconv_1));uconv_1d_ltd=uconv_1_ltd*cos(theta1);uconv_1q_ltd=uconv_1_ltd*sin(theta1);uconv_r=uconv_1d_ltd*cosphi1-uconv_1q_ltd*sinphi1;uconv_i=uconv_1d_ltd*sinphi1+uconv_1q_ltd*cosphi1;uconv_1=sqrt(max(0.0,sqr(uconv_1d)+sqr(uconv_1q)));theta1=atan2(uconv_1q,uconv_1d);[theta1]='rad';"vardef(uconv_max)='p.u.';'Max. converter voltage'";"vardef(uconv_1d)='p.u.';'Converter voltage reference, positive sequence, d-axis'";"vardef(uconv_1q)='p.u.';'Converter voltage reference, positive sequence, q-axis'";"vardef(cosphi1)=;'Cosine of reference angle, positive sequence'";"vardef(sinphi1)=;'Sine of reference angle, positive sequence'";"vardef(uconv_r)='p.u.';'Converter voltage reference, real part'";"vardef(uconv_i)='p.u.';'Converter voltage reference, imaginary part'";"vardef(uconv_1)='p.u.';'Converter voltage reference, positive sequence, magnitude'";"vardef(uconv_1_ltd)='p.u.';'Converter voltage reference (limited), positive sequence, magnitude'";"vardef(uconv_1d_ltd)='p.u.';'Converter voltage reference (limited), positive sequence, d-axis'";"vardef(uconv_1q_ltd)='p.u.';'Converter voltage reference (limited), positive sequence, q-axis'";limfix(uconv_max)=(0,);inc(uconv_1d_ltd)=uconv_r*cosphi1+uconv_i*sinphi1;inc(uconv_1q_ltd)=-uconv_r*sinphi1+uconv_i*cosphi1;inc(uconv_1)=sqrt(max(0.0,sqr(uconv_r)+sqr(uconv_i)));inc(uconv_1d)=uconv_r*cosphi1+uconv_i*sinphi1;inc(uconv_1q)=-uconv_r*sinphi1+uconv_i*cosphi1;;;;;;;;;;;;;;;;;;;;;;;;;;;;;;;;;;;;;;;;;;;;;;;;;;;;;;;;;;;;;;;;;;;;;;;;;;;;;;;;;;;;;;;;;;;;;;;;;;;;;;;;;;;;;;;;;;;;;;;;;;;;;;;;;;;;;;;;;;;;;;;;;;;;;;;;;;;;;;;;;;;;;;;;;;;;;;;;;;;;;;;;;;;;;;;;;;;;;;;;;;;;;;;;;;;;;;;;;;;;;;;;;;;;;;;;;;;;;;;;;;;;;;;;;;;;;;;;;;;;;;;;;;;;;;;;;;;;;;;;;;;;;;;;;;;;;;;;;;;;;;;;;;;;;;;;;;;;;;;;;;;;;;;;;0;;0;;uconv_r,uconv_i;uconv_1d,uconv_1q,cosphi1,sinphi1;;uconv_max;theta1,uconv_1,uconv_1_ltd,uconv_1d_ltd,uconv_1q_ltd
  8;C;P_Vdc Control BlkDef;286;0;6;1;Vdc_max,dVdc_ref_max,dP_ref_max,P_ref_max,P_max,iP_max_vdc,dOutP_max,dOutVdc_max,iP_max;0;;1;Vdc_min,dVdc_ref_min,dP_ref_min,P_ref_min,P_min,dOutP_min,dOutVdc_min;0;;1;iP_ref,dPmarge_SI_up,dPmarge_SI_down;1;mode_P_cmd,DC_switch_open,trip_dc,STATCOM_on,EPC,dP_si,P_max_epc,udc,udc_ref,idc,P_ref,dP_fsm,dP_pod,dP_epc,Pac_loc,Pac_poc,Pdc,P_min_epc,UVRT,iP_in_limit,block,uac_loc;1;xiP,xd,xi_limov,xi_limuv;1;Mode_P,poc,gradlim_Vref,gradlim_Pref,Kp_Vdc,Ki_Vdc,Kd_Vdc,Td_Vdc,Ctrl_P,Kp_P,Ki_P,gradlim_OutP,gradlim_OutVdc,Mode_Vdc_Droop,Dvdc,Didc,Mode_P_Droop,Dp,Mode_P_Droop_Db,Vdc_droop_max_db,Vdc_droop_min_db,Mode_DC_OV,Kp_lim,Ki_lim,Mode_DC_UV,Mode_P_Db,Mode_P_Db_epco,Mode_P_Db_epcu,Vdc_max_db,Vdc_min_db,Kp_vdc_db,SI_epc,Mode_Vadp,Vac_min;1;P_ref_sum_freeze,Kp,Ki,Kd,y_max,y_min,yx_max,yx_min,freeze_int,yp,yd,dxd,P_ref_VdcDroop,over_droop_db,under_droop_db,db_ctrl_over,db_ctrl_under,P,P_ref_ltd,P_ref_sum,P_ref_sum_epc,P_ref_sum_ltd,P_ref_sum_without_SI,Pdc_invert,dP_droop,dP_droop_ovuv,dP_overvolt,dP_ref,dP_si_enabled,dP_si_ff,dP_undervolt,delta,delta_P,delta_udc,droop_udc,freeze_lim,iref_db_droop,iref_db_droop_si,iref_out,iref_out_droop,iref_out_gradlim,mode_P,ref,udc_over,udc_ref_droop,udc_ref_droop_ltd,udc_ref_final,udc_ref_ltd,udc_under;241;Kp=select_const(mode_P,Kp_P,Kp_Vdc);Ki=select_const(mode_P,Ki_P,Ki_Vdc);Kd=select_const(mode_P,0.0,Kd_Vdc);yp=select(mode_P,selfix(Ctrl_P,ref,delta),delta);y_max=select(mode_P,min(P_max,P_max_epc)-iref_db_droop,iP_max_vdc);y_min=select(mode_P,max(P_min,P_min_epc)-iref_db_droop,-iP_max_vdc);yx_max=select(mode_P,P_max-iref_db_droop,iP_max_vdc);yx_min=select(mode_P,P_min-iref_db_droop,-iP_max_vdc);inc(Kp)=selfix_const(mode_P,Kp_P,Kp_Vdc);inc(Ki)=selfix_const(mode_P,Ki_P,Ki_Vdc);inc(Kd)=selfix_const(mode_P,0.0,Kd_Vdc);inc(y_max)=selfix(mode_P,P_max-iref_db_droop,iP_max_vdc);inc(y_min)=selfix(mode_P,P_min-iref_db_droop,-iP_max_vdc);inc(yx_max)=selfix(mode_P,P_max-iref_db_droop,iP_max_vdc);inc(yx_min)=selfix(mode_P,P_min-iref_db_droop,-iP_max_vdc);limfix(Td_Vdc)=(0,);dxd=select(mode_P,0.0,selfix({Td_Vdc>0.0}.and.{Kd_Vdc>0.0},(delta-xd)/selfix(Td_Vdc>0.0,Td_Vdc,1.0),0.0));xd.=dxd;yd=select(mode_P,0.0,dxd*Kd);inc(freeze_int)=selfix_const(block.or.UVRT,1,0);freeze_int=picdro_const(block.or.UVRT.or.{iP_in_limit.and.{{xiP>0.and.delta>0}.or.{xiP<0.and.delta<0}}},0.00001,0.01);xiP.=select(freeze_int,0.0,select({flipflop(lastvalue(xiP)+lim(Kp*yp,min(-y_max,y_min),max(-y_min,y_max))>y_max+0.000001,lastvalue(xiP)+lim(Kp*yp,min(-y_max,y_min),max(-y_min,y_max))<y_max).and.flipflop(delta>0.0,delta<0.0)}.or.{flipflop(lastvalue(xiP)+lim(Kp*yp,min(-y_max,y_min),max(-y_min,y_max))<y_min-0.000001,lastvalue(xiP)+lim(Kp*yp,min(-y_max,y_min),max(-y_min,y_max))>y_min).and.flipflop(delta<0.0,delta>0.0)},0.0,Ki*delta));iref_out=lim(limstate(xiP,yx_min-0.0000001,yx_max+0.0000001)+Kp*yp+yd,y_min,y_max);ref=select(mode_P,P_ref_sum_ltd,udc_ref_final);delta=select(mode_P,delta_P,delta_udc);P=selfix(poc>1.5,Pdc_invert,selfix(poc>0.5,Pac_poc,Pac_loc));P_ref_sum_ltd=select(EPC,lim(P_ref_sum_epc,min(max(P_ref_min,P_min_epc),min(P_ref_max,P_max_epc)),max(min(P_ref_max,P_max_epc),max(P_ref_min,P_min_epc))),lim_const(P_ref_sum_epc,P_ref_min,P_ref_max));dPmarge_SI_up=select(EPC,min(P_ref_max,P_max_epc),P_ref_max)-P_ref_sum_without_SI;dPmarge_SI_down=select(EPC,max(P_ref_min,P_min_epc),P_ref_min)-P_ref_sum_without_SI;udc_ref_droop_ltd=lim_const(udc_ref_droop,Vdc_min,Vdc_max);mode_P=select(STATCOM_on.or.trip_dc,0,select(EPC,1,mode_P_cmd));inc(mode_P_cmd)=selfix(Mode_P,1,0);iref_out_gradlim=select(mode_P,selfix(gradlim_OutP,gradlim_const(selfix(gradlim_OutP,iref_out,0),dOutP_min/100,dOutP_max/100),iref_out),selfix(gradlim_OutVdc,gradlim_const(selfix(gradlim_OutVdc,iref_out,0),dOutVdc_min/100,dOutVdc_max/100),iref_out));inc(db_ctrl_over)=selfix({mode_P.and.Mode_P_Db.and.{Vdc_max_db>Vdc_min_db}.and.{.not.{EPC.and.{.not.Mode_P_Db_epco}}}}.or.{EPC.and.Mode_P_Db_epco},max(0.0,udc-Vdc_max_db),0.0);inc(db_ctrl_under)=selfix({mode_P.and.Mode_P_Db.and.{Vdc_max_db>Vdc_min_db}.and.{.not.{EPC.and.{.not.Mode_P_Db_epcu}}}}.or.{EPC.and.Mode_P_Db_epcu},min(0.0,udc-Vdc_min_db),0.0);db_ctrl_over=select({mode_P.and.Mode_P_Db.and.{Vdc_max_db>Vdc_min_db}.and.{.not.{EPC.and.{.not.Mode_P_Db_epco}}}}.or.{EPC.and.Mode_P_Db_epco},max(0.0,udc-Vdc_max_db),0.0);db_ctrl_under=select({mode_P.and.Mode_P_Db.and.{Vdc_max_db>Vdc_min_db}.and.{.not.{EPC.and.{.not.Mode_P_Db_epcu}}}}.or.{EPC.and.Mode_P_Db_epcu},min(0.0,udc-Vdc_min_db),0.0);iref_db_droop=lim_const(select(mode_P.and.Mode_P_Db.and.{Vdc_max_db<=Vdc_min_db},(udc-Vdc_max_db)*Kp_vdc_db,(db_ctrl_over+db_ctrl_under)*Kp_vdc_db),P_min,P_max);over_droop_db=selfix(Mode_P_Droop.and.Mode_P_Droop_Db,picdro(selfix(Mode_P_Droop.and.Mode_P_Droop_Db,udc-Vdc_droop_max_db+0.5,0),0.0,0.0),0);under_droop_db=selfix(Mode_P_Droop.and.Mode_P_Droop_Db,picdro(selfix(Mode_P_Droop.and.Mode_P_Droop_Db,Vdc_droop_min_db-udc+0.5,0),0.0,0.0),0);dP_droop=selfix(Mode_P_Droop,selfix(Mode_P_Droop_Db,select(over_droop_db,(udc-Vdc_droop_max_db)*Dp,select(under_droop_db,(udc-Vdc_droop_min_db)*Dp,0.0)),(udc-udc_ref_ltd)*Dp),0.0);inc(over_droop_db)=selfix(Mode_P_Droop.and.Mode_P_Droop_Db,selfix_const(udc>Vdc_droop_max_db,1,0),0);inc(under_droop_db)=selfix(Mode_P_Droop.and.Mode_P_Droop_Db,selfix_const(udc<Vdc_droop_min_db,1,0),0);inc(dP_droop)=selfix(Mode_P_Droop,selfix(Mode_P_Droop_Db,selfix(over_droop_db,(udc-Vdc_droop_max_db)*Dp,selfix(under_droop_db,(udc-Vdc_droop_min_db)*Dp,0.0)),(udc-udc_ref_ltd)*Dp),0.0);xi_limov.=selfix(Mode_DC_OV,select(EPC.or.freeze_lim,0.0,Ki_lim*udc_over),0.0);dP_overvolt=selfix(Mode_DC_OV,lim_const(limstate_const(xi_limov,0.0,1.0)+Kp_lim*udc_over,0.0,1.0),0.0);xi_limuv.=selfix(Mode_DC_UV,select(EPC.or.freeze_lim,0.0,Ki_lim*udc_under),0.0);dP_undervolt=selfix(Mode_DC_UV,lim_const(limstate_const(xi_limuv,-1.0,0.0)+Kp_lim*udc_under,-1.0,0.0),0.0);P_ref_ltd=selfix(gradlim_Pref,gradlim_const(selfix(gradlim_Pref,P_ref,0),dP_ref_min/100,dP_ref_max/100),P_ref);Pdc_invert=-Pdc;iP_ref=select(block,0.0,lim(select(mode_P,iref_out_droop/selfix(Mode_Vadp,max(uac_loc,Vac_min),1.0),iref_out_droop),-iP_max,iP_max));dP_si_ff=select(mode_P,selfix(Ctrl_P,dP_si_enabled*(1.0-Kp_P),dP_si_enabled),dP_si_enabled);P_ref_sum_freeze=select(EPC,lastvalue(P_ref_sum_freeze),P_ref_sum);P_ref_sum_epc=select(DC_switch_open.or.trip_dc.or.STATCOM_on,0.0,select(EPC,P_ref_sum_freeze+dP_epc+dP_si_enabled,P_ref_sum+dP_si_enabled));P_ref_sum_without_SI=select(DC_switch_open.or.trip_dc.or.STATCOM_on,0.0,select(EPC,P_ref_sum_freeze+dP_epc,P_ref_sum));delta_P=-P+P_ref_sum_ltd;delta_udc=udc-udc_ref_final;udc_ref_droop=droop_udc+udc_ref_ltd;iref_out_droop=iref_out_gradlim+iref_db_droop_si;P_ref_sum=P_ref_ltd+dP_ref+dP_droop_ovuv;dP_ref=dP_pod+dP_fsm;iref_db_droop_si=iref_db_droop+dP_si_ff;dP_droop_ovuv=dP_droop+dP_overvolt+dP_undervolt;freeze_lim=UVRT+iP_in_limit+block;dP_si_enabled=selfix(SI_epc,dP_si,select(EPC,0.0,dP_si));inc(P_ref_VdcDroop)=P-dP_ref;droop_udc=select(DC_switch_open.or.trip_dc.or.STATCOM_on,0.0,selfix(Mode_Vdc_Droop>1.5,-Didc*idc,selfix(Mode_Vdc_Droop,Dvdc*(P-(P_ref_VdcDroop+dP_ref)),0.0)));udc_over=udc-Vdc_max;udc_under=udc-Vdc_min;udc_ref_ltd=selfix(gradlim_Vref,gradlim_const(selfix(gradlim_Vref,udc_ref,0),dVdc_ref_min/100,dVdc_ref_max/100),udc_ref);udc_ref_final=select(DC_switch_open.or.trip_dc,udc_ref_droop_ltd,select(STATCOM_on,0.0,udc_ref_droop_ltd));"vardef(Mode_P)=;'Control mode: 0 = Vdc, 1 = P'";"vardef(Mode_Vdc_Droop)=;'Vdc droop ctrl.: 0=off, 1=Vdc(P), 2=Vdc(idc)'";"vardef(Mode_P_Droop)=;'P droop ctrl., P(Vdc): 0 = off, 1 = on'";"vardef(Mode_P_Droop_Db)=;'P droop ctrl. deadband: 0=off; 1=on'";"vardef(Mode_DC_OV)=;'Vdc over-voltage limiter: 0 = off, 1 = on'";"vardef(Mode_DC_UV)=;'Vdc under-voltage limiter: 0 = off, 1 = on'";"vardef(Mode_P_Db)=;'Deadband control, P(Vdc_db): 0 = off, 1 = on'";"vardef(Mode_P_Db_epco)=;'Deadb. ctrl. DC overvolt. while EPC: 0/1'";"vardef(Mode_P_Db_epcu)=;'Deadb. ctrl. DC undervlt. while EPC: 0/1'";"vardef(SI_epc)=;'Allow synthetic inertia during EPC: 0 = no, 1 = yes'";"vardef(Mode_Vadp)=;'Adapt current ref. output to AC voltage: 0=no, 1=yes'";"vardef(poc)=;'P ctrl. at: 0 = local AC terminal, 1 = PoC, 2 = DC terminal'";"vardef(P_ref_min)='p.u.';'Minimum active power reference value'";"vardef(P_ref_max)='p.u.';'Maximum active power reference value'";"vardef(gradlim_Pref)=;'P reference gradient limiter: 0 = off, 1 = on'";"vardef(gradlim_Vref)=;'Vdc reference gradient limiter: 0 = off, 1 = on'";"vardef(dP_ref_min)='%/s';'Min. rate of change of power reference'";"vardef(dP_ref_max)='%/s';'Max. rate of change of power reference'";"vardef(dVdc_ref_min)='%/s';'Min. rate of change of Vdc reference'";"vardef(dVdc_ref_max)='%/s';'Max. rate of change of Vdc reference'";"vardef(Ctrl_P)=;'P ctrl. type: 0 = PI, 1 = I with prop. ref. feed-forward'";"vardef(Kp_Vdc)=;'DC voltage controller proportional gain'";"vardef(Ki_Vdc)=;'DC voltage controller integrator gain'";"vardef(Kd_Vdc)=;'DC voltage controller derivative gain'";"vardef(Td_Vdc)='s';'DC voltage controller derivate time constant'";"vardef(Kp_P)=;'Active power controller proportional gain'";"vardef(Ki_P)=;'Active power controller integrator gain'";"vardef(P_max)='p.u.';'Maximum active power (positive value)'";"vardef(P_min)='p.u.';'Minimum active power (negative value)'";"vardef(iP_max_vdc)='p.u.';'Max. steady active current (Vdc Ctrl.)'";"vardef(gradlim_OutP)=;'P ctrl. output gradient limiter: 0=off, 1=on'";"vardef(gradlim_OutVdc)=;'Vdc ctrl. output gradient limiter: 0=off, 1=on'";"vardef(dOutP_min)='%/s';'Min. rate of change of P ctrl. output'";"vardef(dOutP_max)='%/s';'Max. rate of change of P ctrl. output'";"vardef(dOutVdc_min)='%/s';'Min. rate of change of Vdc ctrl. output'";"vardef(dOutVdc_max)='%/s';'Max. rate of change of Vdc ctrl. output'";"vardef(Dvdc)='p.u./p.u.';'Gain for Vdc droop control, Vdc(P)'";"vardef(Didc)='p.u./p.u.';'Gain for Vdc droop control, Vdc(idc)'";"vardef(Dp)='p.u./p.u.';'Gain for P droop control, P(Vdc)'";"vardef(P_ref_VdcDroop)='p.u.';'P reference value for Vdc(P) droop'";"vardef(Vdc_droop_max_db)='p.u.';'Upper deadband P droop ctrl.'";"vardef(Vdc_droop_min_db)='p.u.';'Lower deadband P droop ctrl.'";"vardef(Vdc_max)='p.u.';'Maximum steady-state DC voltage'";"vardef(Vdc_min)='p.u.';'Minimum steady-state DC voltage'";"vardef(Kp_lim)=;'DC over/under-voltage limiter, proportional gain'";"vardef(Ki_lim)=;'DC over/under-voltage limiter, integrator gain'";"vardef(Vdc_max_db)='p.u.';'Upper Vdc threshold for deadband ctrl.'";"vardef(Vdc_min_db)='p.u.';'Lower Vdc threshold for deadband ctrl.'";"vardef(Kp_vdc_db)=;'Deadband control gain of Vdc'";"vardef(Vac_min)='p.u.';'Minimum steady-state operating voltage'";"vardef(iP_max)='p.u.';'Maximum active current (max. ref. output)'";"vardef(udc)='p.u.';'DC voltage (local measurement)'";"vardef(udc_ref)='p.u.';'DC voltage reference signal'";"vardef(udc_ref_ltd)='p.u.';'DC voltage reference signal (rate of change limited)'";"vardef(droop_udc)='p.u.';'Vdc(P) droop reference signal'";"vardef(Pac_loc)='p.u.';'AC power (local measurement)'";"vardef(Pac_poc)='p.u.';'AC power (measurement at PoC)'";"vardef(Pdc)='p.u.';'DC power (local measurement)'";"vardef(P)='p.u.';'Active power (selected measurement)'";"vardef(P_ref)='p.u.';'Active power reference signal'";"vardef(uac_loc)='p.u.';'AC voltage (local measurement)'";"vardef(mode_P_cmd)=;'Control mode (input signal): 0 = Vdc, 1 = P'";"vardef(UVRT)=;'Under-voltage ride through (0 = Inactive, 1 = Active)'";"vardef(block)=;'Blocking signal'";"vardef(DC_switch_open)=;'Status of DC switches: 0 = closed, 1 = open'";"vardef(trip_dc)=;'Trip signal DC connection'";"vardef(STATCOM_on)=;'STATCOM mode'";"vardef(iP_in_limit)=;'Flag iP in limitation'";"vardef(freeze_int)=;'Freeze integrator of PI controller'";"vardef(dP_fsm)='p.u.';'Additional active power by FSM'";"vardef(dP_pod)='p.u.';'Additional active power by POD'";"vardef(dP_si)='p.u.';'Additional active power by synthetic inertia'";"vardef(EPC)=;'Emergency Power Control flag'";"vardef(dP_epc)='p.u.';'Additional active power by EPC'";"vardef(P_max_epc)='p.u.';'Maximum active power limitation by EPC'";"vardef(P_min_epc)='p.u.';'Minimum active power limitation by EPC'";"vardef(iP_ref)='p.u.';'AC active current reference (pos. seq.)'";"vardef(dPmarge_SI_up)='p.u.';'Upper power margin for synthetic inertia'";"vardef(dPmarge_SI_down)='p.u.';'Lower power margin for synthetic inertia'";"vardef(dP_ref)='p.u.';'Additional active power reference by FSM and SI'";"vardef(P_ref_ltd)='p.u.';'Active power reference signal (rate of change limited)'";"vardef(P_ref_sum)='p.u.';'Active power reference with P(Vdc) droop, DC over-/undervoltage limitation, FSM and SI contributions'";"vardef(P_ref_sum_freeze)='p.u.';'Active power reference signal, frozen by EPC'";"vardef(P_ref_sum_epc)='p.u.';'Active power reference with P(Vdc) droop, DC over-/undervoltage limitation, FSM, SI and EPC contributions)'";"vardef(P_ref_sum_ltd)='p.u.';'Active power reference signal, limited to min/max values and EPC limits'";"vardef(dP_droop)='p.u.';'P(Vdc) droop reference signal'";"vardef(dP_overvolt)='p.u.';'Power reference change by DC overvoltage limiter'";"vardef(dP_undervolt)='p.u.';'Power reference change by DC undervoltage limiter'";"vardef(dP_droop_ovuv)='p.u.';'Power reference change because of P(Vdc) droop, DC over-/undervoltage limitation'";"vardef(droop_udc)='p.u.';'Vdc(P) droop reference signal'";"vardef(iref_db_droop)='p.u.';'Deadband control, additional active current'";limfix(Mode_P)=[0,1];limfix(poc)=[0,2];limfix(gradlim_Vref)=[0,1];limfix(gradlim_Pref)=[0,1];limfix(Kp_Vdc)=[0,);limfix(Ki_Vdc)=[0,);limfix(Kd_Vdc)=[0,);limfix(Td_Vdc)=(0,);limfix(Ctrl_P)=[0,1];limfix(Kp_P)=[0,);limfix(Ki_P)=[0,);limfix(Mode_Vdc_Droop)=[0,2];limfix(Mode_P_Droop)=[0,1];limfix(Dp)=[0,);limfix(Mode_P_Droop_Db)=[0,1];limfix(Vdc_droop_max_db)=[1,);limfix(Vdc_droop_min_db)=(,1];limfix(Vdc_droop_max_db)=(Vdc_droop_min_db,);limfix(Vdc_droop_min_db)=(,Vdc_droop_max_db);limfix(Mode_DC_OV)=[0,1];limfix(Kp_lim)=[0,);limfix(Ki_lim)=[0,);limfix(Mode_P_Db)=[0,1];limfix(Mode_P_Db_epco)=[0,1];limfix(Mode_P_Db_epcu)=[0,1];limfix(Vdc_max_db)=[Vdc_min_db,);limfix(Vdc_min_db)=(0,Vdc_max_db];limfix(Kp_vdc_db)=[0,);limfix(SI_epc)=[0,1];limfix(Mode_Vadp)=[0,1];limfix(Vac_min)=(0,1);limfix(dVdc_ref_max)=(0,);limfix(dP_ref_max)=(0,);limfix(P_ref_max)=[0,);limfix(P_ref_max)=(P_ref_min,);limfix(P_max)=[0,);limfix(P_max)=(P_min,);limfix(iP_max_vdc)=(0,iP_max);limfix(iP_max)=(iP_max_vdc,);limfix(Vdc_max)=[1,);limfix(Vdc_max)=(Vdc_min,);limfix(dVdc_ref_min)=(,0);limfix(dP_ref_min)=(,0);limfix(P_ref_min)=(,0];limfix(P_ref_min)=(,P_ref_max);limfix(P_min)=(,0];limfix(P_min)=(,P_max);limfix(Vdc_min)=(0,Vdc_max);limfix(gradlim_OutP)=[0,1];limfix(dOutP_min)=(,0);limfix(dOutP_max)=(0,);limfix(gradlim_OutVdc)=[0,1];limfix(dOutVdc_min)=(,0);limfix(dOutVdc_max)=(0,);outfix({Mode_DC_OV>0.5}.and.{udc>Vdc_max},'DC voltage is larger than maximum permissible steady-state DC voltage: udc=udc p.u. > Vdc_max=Vdc_max p.u. Controller will reduce power flow to meet the limit Vdc_max.');outfix({Mode_DC_UV>0.5}.and.{udc<Vdc_min},'DC voltage is lower than minimum permissible steady-state DC voltage: udc=udc p.u. < Vdc_min=Vdc_min p.u. Controller will reduce power flow to meet the limit Vdc_min.');inc(udc_ref)=udc+selfix(Mode_Vdc_Droop>1.5,Didc*idc,0.0);inc(P_ref)=P-dP_droop-dP_fsm-dP_pod;inc(xiP)=selfix(Mode_P,selfix(Ctrl_P,iP_ref*selfix(Mode_Vadp,max(uac_loc,Vac_min),1.0)-dP_si-iref_db_droop-Kp_P*P,iP_ref*selfix(Mode_Vadp,max(uac_loc,Vac_min),1.0)-dP_si-iref_db_droop),iP_ref-dP_si);inc(xd)=0.0;inc(xi_limov)=0.0;inc(xi_limuv)=0.0;inc0(UVRT)=0;inc0(block)=0;inc0(trip_dc)=0;inc0(STATCOM_on)=0;inc0(DC_switch_open)=0;inc0(iP_in_limit)=0;inc0(dP_fsm)=0.0;inc0(dP_pod)=0.0;inc(dP_si)=0.0;inc(EPC)=0;inc(dP_epc)=0.0;inc(P_max_epc)=max(P_max,P_ref_max);inc(P_min_epc)=min(P_min,P_ref_min);inc(P_ref_sum_without_SI)=selfix(DC_switch_open.or.trip_dc.or.STATCOM_on,0.0,P_ref_sum);inc(dPmarge_SI_up)=P_ref_max-P_ref_sum_without_SI;inc(dPmarge_SI_down)=P_ref_min-P_ref_sum_without_SI;inc0(iP_ref)=0;;;;;;;;;;;;;;;;;;;;;;;;;;;;;;;;;;;;;;;;;;;;;;;;;;;;;;;;;;;;;;;;;;;;;;;;;;;;;;;;;;;;;;;;;;;;;;;;;;;;;;;;;;;;;;;;;0;;0;;iP_ref,dPmarge_SI_up,dPmarge_SI_down;mode_P_cmd,DC_switch_open,trip_dc,STATCOM_on,EPC,dP_si,P_max_epc,udc,udc_ref,idc,P_ref,dP_fsm,dP_pod,dP_epc,Pac_loc,Pac_poc,Pdc,P_min_epc,UVRT,iP_in_limit,block,uac_loc;xiP,xd,xi_limov,xi_limuv;Mode_P,poc,gradlim_Vref,gradlim_Pref,Kp_Vdc,Ki_Vdc,Kd_Vdc,Td_Vdc,Ctrl_P,Kp_P,Ki_P,gradlim_OutP,gradlim_OutVdc,Mode_Vdc_Droop,Dvdc,Didc,Mode_P_Droop,Dp,Mode_P_Droop_Db,Vdc_droop_max_db,Vdc_droop_min_db,Mode_DC_OV,Kp_lim,Ki_lim,Mode_DC_UV,Mode_P_Db,Mode_P_Db_epco,Mode_P_Db_epcu,Vdc_max_db,Vdc_min_db,Kp_vdc_db,SI_epc,Mode_Vadp,Vac_min;P_ref_sum_freeze,Kp,Ki,Kd,y_max,y_min,yx_max,yx_min,freeze_int,yp,yd,dxd,P_ref_VdcDroop,over_droop_db,under_droop_db,db_ctrl_over,db_ctrl_under,P,P_ref_ltd,P_ref_sum,P_ref_sum_epc,P_ref_sum_ltd,P_ref_sum_without_SI,Pdc_invert,dP_droop,dP_droop_ovuv,dP_overvolt,dP_ref,dP_si_enabled,dP_si_ff,dP_undervolt,delta,delta_P,delta_udc,droop_udc,freeze_lim,iref_db_droop,iref_db_droop_si,iref_out,iref_out_droop,iref_out_gradlim,mode_P,ref,udc_over,udc_ref_droop,udc_ref_droop_ltd,udc_ref_final,udc_ref_ltd,udc_under
...